Version 4
SHEET 1 2036 744
WIRE 720 -176 80 -176
WIRE 832 -176 720 -176
WIRE 1344 -176 1280 -176
WIRE 1488 -176 1344 -176
WIRE 1600 -176 1488 -176
WIRE 1760 -176 1680 -176
WIRE 1488 -160 1488 -176
WIRE 800 -112 656 -112
WIRE 1344 -80 1344 -176
WIRE 208 -64 192 -64
WIRE 304 -64 288 -64
WIRE 336 -64 304 -64
WIRE 416 -64 400 -64
WIRE 528 -64 416 -64
WIRE 608 -64 528 -64
WIRE 656 -64 656 -112
WIRE 656 -64 608 -64
WIRE 1344 -64 1344 -80
WIRE 720 -48 720 -176
WIRE 1488 -48 1488 -96
WIRE 528 -32 528 -64
WIRE 800 -32 800 -112
WIRE 944 -32 800 -32
WIRE 1280 -32 1280 -176
WIRE 1280 -32 1232 -32
WIRE -288 -16 -416 -16
WIRE -160 -16 -288 -16
WIRE -80 -16 -160 -16
WIRE 80 -16 80 -176
WIRE 80 -16 -80 -16
WIRE 416 -16 416 -64
WIRE -288 16 -288 -16
WIRE 80 32 80 -16
WIRE 192 32 192 -64
WIRE 304 32 304 -64
WIRE 720 64 720 32
WIRE 944 64 720 64
WIRE 1344 64 1344 -16
WIRE 1344 64 1232 64
WIRE 1376 64 1344 64
WIRE 1456 64 1440 64
WIRE 832 80 832 -176
WIRE -80 96 -80 -16
WIRE 32 96 -80 96
WIRE 416 96 416 48
WIRE 416 96 352 96
WIRE 528 96 528 48
WIRE 528 96 416 96
WIRE 656 96 656 -64
WIRE -288 112 -288 80
WIRE 528 128 528 96
WIRE -160 160 -160 -16
WIRE 32 160 -160 160
WIRE 496 160 352 160
WIRE 720 160 720 64
WIRE 944 160 912 160
WIRE 1760 160 1760 -176
WIRE 1760 160 1232 160
WIRE 832 208 832 160
WIRE 912 208 912 160
WIRE 912 208 832 208
WIRE 32 224 -144 224
WIRE 496 224 496 160
WIRE 496 224 352 224
WIRE 528 240 528 208
WIRE 608 256 608 -64
WIRE 944 256 896 256
WIRE 1456 256 1456 64
WIRE 1456 256 1232 256
WIRE 1632 256 1456 256
WIRE 1760 256 1760 240
WIRE 1760 256 1632 256
WIRE 832 272 832 208
WIRE 32 288 -16 288
WIRE 400 288 352 288
WIRE -144 336 -144 224
WIRE -16 336 -16 288
WIRE 496 352 496 224
WIRE 944 352 896 352
WIRE 1264 352 1232 352
WIRE 400 384 400 368
WIRE 608 448 608 320
WIRE 656 448 656 160
WIRE 656 448 608 448
WIRE 720 448 720 240
WIRE 720 448 656 448
WIRE 768 448 720 448
WIRE 832 448 832 352
WIRE 832 448 768 448
WIRE 944 448 832 448
WIRE 1248 448 1232 448
WIRE 1296 448 1248 448
WIRE 1760 448 1760 256
WIRE 1760 448 1376 448
WIRE 1856 448 1760 448
WIRE -144 464 -144 400
WIRE -16 464 -16 416
WIRE -16 464 -144 464
WIRE 192 464 192 336
WIRE 192 464 -16 464
WIRE 400 464 400 448
WIRE 400 464 192 464
WIRE 496 464 496 416
WIRE 496 464 400 464
WIRE 1456 480 1456 256
WIRE 1632 528 1632 256
WIRE 1248 544 1248 448
WIRE 1456 592 1456 544
WIRE 1248 704 1248 624
WIRE 1456 704 1456 672
WIRE 1456 704 1248 704
WIRE 1520 704 1456 704
WIRE 1632 704 1632 592
WIRE 1632 704 1520 704
FLAG 192 464 0
FLAG 528 240 0
FLAG -288 112 0
FLAG 768 448 0
FLAG 1488 -48 0
FLAG 1520 704 0
FLAG -496 -16 0
FLAG 1856 512 0
FLAG 1088 496 0
SYMBOL PowerProducts\\LT3479 192 176 R0
SYMATTR InstName U1
SYMBOL ind 192 -48 R270
WINDOW 0 32 56 VTop 2
WINDOW 3 5 56 VBottom 2
SYMATTR InstName L1
SYMATTR Value 4.7µ
SYMBOL res -32 320 R0
SYMATTR InstName R1
SYMATTR Value 17.8k
SYMBOL cap 384 384 R0
SYMATTR InstName C1
SYMATTR Value 10n
SYMBOL res 384 272 R0
SYMATTR InstName R2
SYMATTR Value 4.32k
SYMBOL cap -160 336 R0
SYMATTR InstName C2
SYMATTR Value 0.1µ
SYMBOL cap 480 352 R0
SYMATTR InstName C3
SYMATTR Value 100p
SYMBOL cap 400 -16 R0
SYMATTR InstName C4
SYMATTR Value 470p
SYMBOL res 512 -48 R0
SYMATTR InstName R3
SYMATTR Value 200k
SYMBOL res 512 112 R0
SYMATTR InstName R4
SYMATTR Value 23.2k
SYMBOL schottky 336 -48 R270
WINDOW 0 32 32 VTop 2
WINDOW 3 0 32 VBottom 2
SYMATTR InstName D1
SYMATTR Value MBRS1100
SYMBOL cap -304 16 R0
SYMATTR InstName C5
SYMATTR Value 2.2µ
SYMBOL cap 592 256 R0
SYMATTR InstName C6
SYMATTR Value 0.1µ
SYMATTR SpiceLine V=10v
SYMBOL cap 640 96 R0
SYMATTR InstName C7
SYMATTR Value 10µ
SYMATTR SpiceLine V=10v
SYMBOL PowerProducts\\LT3652 1088 208 R0
SYMATTR InstName U2
SYMBOL res 704 144 R0
SYMATTR InstName R6
SYMATTR Value 100k
SYMBOL res 704 -64 R0
SYMATTR InstName R5
SYMATTR Value 38.3k
SYMBOL res 816 256 R0
SYMATTR InstName R8
SYMATTR Value 100k
SYMBOL cap 1328 -80 R0
SYMATTR InstName C8
SYMATTR Value 1µ
SYMATTR SpiceLine V=50v
SYMBOL schottky 1440 48 R90
WINDOW 0 0 32 VBottom 2
WINDOW 3 32 32 VTop 2
SYMATTR InstName D2
SYMATTR Value CMDSH2-3
SYMBOL schottky 1504 -96 R180
WINDOW 0 24 64 Left 2
WINDOW 3 24 0 Left 2
SYMATTR InstName D3
SYMATTR Value CMDSH2-3
SYMBOL ind 1584 -160 R270
WINDOW 0 32 56 VTop 2
WINDOW 3 5 56 VBottom 2
SYMATTR InstName L2
SYMATTR Value 10µ
SYMBOL res 1392 432 R90
WINDOW 0 0 56 VBottom 2
WINDOW 3 32 56 VTop 2
SYMATTR InstName R10
SYMATTR Value 606k
SYMBOL cap 1440 480 R0
SYMATTR InstName C9
SYMATTR Value 100µ
SYMATTR SpiceLine V=10v
SYMBOL res 1440 576 R0
SYMATTR InstName R11
SYMATTR Value 0.1
SYMBOL cap 1616 528 R0
SYMATTR InstName C10
SYMATTR Value 10µ
SYMATTR SpiceLine V=16
SYMBOL res 1232 528 R0
SYMATTR InstName R12
SYMATTR Value 430k
SYMBOL res 1744 144 R0
SYMATTR InstName R9
SYMATTR Value 0.068
SYMBOL res 816 64 R0
SYMATTR InstName R7
SYMATTR Value 210k
SYMBOL voltage -400 -16 R90
WINDOW 0 -32 56 VBottom 2
WINDOW 3 32 56 VTop 2
WINDOW 123 0 0 Left 0
WINDOW 39 0 0 Left 0
SYMATTR InstName V1
SYMATTR Value 3.3
SYMBOL cap 1840 448 R0
SYMATTR InstName C11
SYMATTR Value .2m
TEXT -520 728 Left 2 !.tran 1s startup
