Version 4
SHEET 1 2124 728
WIRE -624 -464 -624 -512
WIRE -464 -464 -464 -512
WIRE -464 -368 -464 -384
WIRE -848 -352 -1184 -352
WIRE -624 -352 -624 -384
WIRE -848 -288 -848 -352
WIRE 1792 -288 -240 -288
WIRE 2016 -288 1792 -288
WIRE -624 -256 -624 -288
WIRE -544 -256 -624 -256
WIRE -464 -256 -464 -304
WIRE -464 -256 -544 -256
WIRE -240 -256 -240 -288
WIRE 656 -256 288 -256
WIRE 1280 -256 720 -256
WIRE 1792 -256 1792 -288
WIRE 848 -208 816 -208
WIRE 960 -208 928 -208
WIRE 1664 -160 1376 -160
WIRE 1792 -160 1792 -192
WIRE 1792 -160 1664 -160
WIRE -880 -128 -1072 -128
WIRE -848 -128 -848 -224
WIRE -848 -128 -880 -128
WIRE -816 -128 -848 -128
WIRE -656 -128 -816 -128
WIRE -544 -128 -544 -256
WIRE -544 -128 -656 -128
WIRE -352 -128 -544 -128
WIRE -240 -128 -240 -192
WIRE -240 -128 -352 -128
WIRE -112 -128 -240 -128
WIRE 464 -128 176 -128
WIRE 560 -128 464 -128
WIRE 848 -128 640 -128
WIRE 1056 -128 928 -128
WIRE 1216 -128 1056 -128
WIRE 1280 -128 1280 -256
WIRE 1280 -128 1216 -128
WIRE 1376 -128 1376 -160
WIRE 1376 -128 1280 -128
WIRE -1072 -96 -1072 -128
WIRE -656 -96 -656 -128
WIRE 1664 -96 1664 -160
WIRE -816 -64 -816 -128
WIRE 1216 -64 1216 -128
WIRE 1792 -64 1792 -160
WIRE 1056 -48 1056 -128
WIRE 1376 -48 1376 -128
WIRE -112 -32 -256 -32
WIRE -96 -32 -112 -32
WIRE 288 -32 288 -256
WIRE 288 -32 176 -32
WIRE 368 -32 288 -32
WIRE 384 -32 368 -32
WIRE 464 -32 464 -128
WIRE 464 -32 432 -32
WIRE 896 -32 464 -32
WIRE -656 0 -656 -16
WIRE -256 0 -256 -32
WIRE -256 0 -656 0
WIRE -656 16 -656 0
WIRE 1376 16 1376 0
WIRE -352 64 -352 -128
WIRE -112 64 -352 64
WIRE 816 64 816 -208
WIRE 816 64 176 64
WIRE 1056 64 1056 16
WIRE 1216 64 1216 0
WIRE 1216 64 1056 64
WIRE 1296 64 1216 64
WIRE 1376 64 1376 16
WIRE 1376 64 1296 64
WIRE 1296 112 1296 64
WIRE -1072 128 -1072 -16
WIRE -816 128 -816 0
WIRE -816 128 -1072 128
WIRE -656 128 -656 96
WIRE -656 128 -816 128
WIRE 1376 128 1376 64
WIRE 1664 128 1664 -16
WIRE 1664 128 1376 128
WIRE 1792 128 1792 16
WIRE 1792 128 1664 128
WIRE -112 160 -256 160
WIRE 384 160 176 160
WIRE 960 160 960 -208
WIRE 960 160 384 160
WIRE -816 192 -816 128
WIRE 384 224 384 160
WIRE -112 256 -256 256
WIRE 896 336 896 -32
WIRE -112 352 -208 352
WIRE 256 352 176 352
WIRE 384 352 384 304
WIRE 384 352 336 352
WIRE 384 432 384 352
WIRE -208 512 -208 352
WIRE 32 512 32 400
WIRE 32 512 -208 512
WIRE 32 608 32 512
WIRE 384 608 384 512
WIRE 384 608 32 608
WIRE 896 608 896 400
WIRE 896 608 384 608
WIRE 32 688 32 608
FLAG -816 192 0
FLAG -880 -128 Vin
IOPIN -880 -128 In
FLAG -256 160 chrg
IOPIN -256 160 In
FLAG -256 256 fault
IOPIN -256 256 In
FLAG 32 688 0
FLAG 2016 -288 load
IOPIN 2016 -288 Out
FLAG 1296 112 0
SYMBOL PowerProducts\\LT3652 32 112 R0
SYMATTR InstName U1
SYMBOL cap -832 -64 R0
SYMATTR InstName C1
SYMATTR Value 10µ
SYMBOL res -672 -112 R0
SYMATTR InstName R1
SYMATTR Value 10k
SYMBOL res -672 0 R0
SYMATTR InstName R2
SYMATTR Value 10k
SYMBOL schottky -864 -288 R0
SYMATTR InstName D1
SYMBOL LED -608 -288 R180
WINDOW 0 24 64 Left 2
WINDOW 3 24 0 Left 2
SYMATTR InstName D2
SYMBOL res -640 -480 R0
SYMATTR InstName R3
SYMATTR Value 1k
SYMBOL LED -448 -304 R180
WINDOW 0 24 64 Left 2
WINDOW 3 24 0 Left 2
SYMATTR InstName D3
SYMBOL res -480 -480 R0
SYMATTR InstName R4
SYMATTR Value 1k
SYMBOL schottky -256 -256 R0
SYMATTR InstName D4
SYMBOL schottky 912 400 R180
WINDOW 0 24 64 Left 2
WINDOW 3 24 0 Left 2
SYMATTR InstName D5
SYMBOL cap 432 -48 R90
WINDOW 0 0 32 VBottom 2
WINDOW 3 32 32 VTop 2
SYMATTR InstName C2
SYMATTR Value 1µ
SYMBOL ind 544 -112 R270
WINDOW 0 32 56 VTop 2
WINDOW 3 5 56 VBottom 2
SYMATTR InstName L1
SYMATTR Value 68µ
SYMBOL res 944 -144 R90
WINDOW 0 0 56 VBottom 2
WINDOW 3 32 56 VTop 2
SYMATTR InstName R5
SYMATTR Value 0.22
SYMBOL cap 1040 -48 R0
SYMATTR InstName C4
SYMATTR Value 10µ
SYMBOL cap 1200 -64 R0
SYMATTR InstName C5
SYMATTR Value 100µ
SYMBOL cap 1360 -48 R0
SYMATTR InstName C6
SYMATTR Value 100µ
SYMATTR SpiceLine V=16
SYMBOL schottky 1808 -192 R180
WINDOW 0 24 64 Left 2
WINDOW 3 24 0 Left 2
SYMATTR InstName D6
SYMBOL schottky 720 -272 R90
WINDOW 0 0 32 VBottom 2
WINDOW 3 32 32 VTop 2
SYMATTR InstName D7
SYMBOL res 944 -224 R90
WINDOW 0 0 56 VBottom 2
WINDOW 3 32 56 VTop 2
SYMATTR InstName R6
SYMATTR Value 0.5
SYMBOL res 352 336 R90
WINDOW 0 0 56 VBottom 2
WINDOW 3 32 56 VTop 2
SYMATTR InstName R7
SYMATTR Value 550
SYMBOL res 368 208 R0
SYMATTR InstName R8
SYMATTR Value 568k
SYMBOL res 368 416 R0
SYMATTR InstName R9
SYMATTR Value 446k
SYMBOL voltage -1072 -112 R0
WINDOW 123 0 0 Left 0
WINDOW 39 0 0 Left 0
SYMATTR InstName V5
SYMATTR Value 4.8
SYMBOL res 1648 -112 R0
SYMATTR InstName R10
SYMATTR Value 1k
SYMBOL res 1776 -80 R0
SYMATTR InstName R11
SYMATTR Value 1k
TEXT -648 -528 Left 2 ;fault
TEXT -488 -528 Left 2 ;chrg
TEXT -1184 712 Left 2 !.tran 60s
